іфіывoўasd-----Date: 04.12.2019 02:03:13-----
-----PARAMETRS-----
Input file: inFile.txt
Output file: inFile.txt.out.txt
Log file: logFile.txt
-----Исходные данные-----
Amount of symbols: 144
Amount of ignored symbols: 0
Amount of lines: 11
1: m
2: {
3: dti=l;
4: dti=l;
5: dti=l;
6: w(ivl){
7: i[i]=i;
8: i=ivl;
9: }
10: ri;
11: };

-----Error-----
Error 208: wrong type of literal (line 3, column 20)
