-----Date: 13.12.2019 21:31:06-----
-----PARAMETRS-----
Input file: inFile.txt
Output file: inFile.txt.out.asm
Log file: logFile.txt
-----Input data-----
Amount of symbols: 145
Amount of ignored symbols: 0
Amount of lines: 9

Lexic analys is performing...

1: m{
2: dti=l;
3: dti=l;
4: w(ivl){
5: i(i(i));
6: i();
7: i=ivl;
8: i=ivl;
9: }
10: r;
11: };
Lexic analys was successfull


IDs analys is performing...


IDs analys was successfull



ID Table
l:	literal,	type: integer,	-1
l:	literal,	type: integer,	0
l:	literal,	type: integer,	20000
l:	literal,	type: integer,	1
main:	function,	in function: main,	type: string,	
i:	variable,	in function: main,	type: char,	
c:	variable,	in function: main,	type: integer

function: main, returning type is: void,	, count of locals is: 2, count of parametors is: 0

Syntax analys is performing...

-----Date: 13.12.2019 21:31:06-----

Yes!!! Count of cycles:202
-------------------------------------E -> l
-------------------------------------M -> vE
-------------------------------------E -> iM
-------------------------------------N -> i=E;
-------------------------------------E -> l
-------------------------------------M -> vE
-------------------------------------E -> iM
-------------------------------------N -> i=E;N
-------------------------------------N -> i();N
-------------------------------------E -> i
-------------------------------------E -> i(E)
-------------------------------------N -> i(E);N
-------------------------------------E -> l
-------------------------------------M -> vE
-------------------------------------E -> iM
-------------------------------------N -> w(E){N}
-------------------------------------E -> l
-------------------------------------N -> dti=E;N
-------------------------------------E -> l
-------------------------------------N -> dti=E;N
-------------------------------------S -> m{Nr;};-----Date: 13.12.2019 21:31:06-----

nSyntax analys was completed successfull


Semantic's analys is performing...


Semantic's analys was completed suucessfull


Code generating is performing...


expression is:
 i=65534------>i 65534 = 
expression is:
 c=0------>c 0 = 
expression is:
 c<20000------>c 20000 < 
expression is:
 printStr(intToChar(i))------>i intToChar printStr 
expression is:
 printLine()------>printLine 
expression is:
 i=i+1------>i i 1 + = 
expression is:
 c=c+1------>c c 1 + = 
expression is:
 return------>return 
Code generating was completed suucessfull

