<<<<<<< HEAD
-----Date: 13.12.2019 21:31:06-----
=======
-----Date: 13.12.2019 20:31:38-----
>>>>>>> 14e5cdb862a8ca1b1b4b5ace734dea5b4714b1ef
-----PARAMETRS-----
Input file: inFile.txt
Output file: inFile.txt.out.asm
Log file: logFile.txt
-----Input data-----
<<<<<<< HEAD
Amount of symbols: 145
Amount of ignored symbols: 0
Amount of lines: 9
=======
Amount of symbols: 118
Amount of ignored symbols: 0
Amount of lines: 10
>>>>>>> 14e5cdb862a8ca1b1b4b5ace734dea5b4714b1ef

Lexic analys is performing...

1: m{
<<<<<<< HEAD
2: dti=l;
3: dti=l;
4: w(ivl){
5: i(i(i));
6: i();
7: i=ivl;
8: i=ivl;
9: }
10: r;
11: };
=======
2: i();
3: r;
4: };
5: tfi(ti){
6: dti;
7: rl;
8: };
9: m{
10: i();
11: r;
12: };
>>>>>>> 14e5cdb862a8ca1b1b4b5ace734dea5b4714b1ef
Lexic analys was successfull


IDs analys is performing...


IDs analys was successfull



ID Table
<<<<<<< HEAD
l:	literal,	type: integer,	-1
l:	literal,	type: integer,	0
l:	literal,	type: integer,	20000
l:	literal,	type: integer,	1
main:	function,	in function: main,	type: string,	
i:	variable,	in function: main,	type: char,	
c:	variable,	in function: main,	type: integer

function: main, returning type is: void,	, count of locals is: 2, count of parametors is: 0

Syntax analys is performing...

-----Date: 13.12.2019 21:31:06-----

Yes!!! Count of cycles:202
-------------------------------------E -> l
-------------------------------------M -> vE
-------------------------------------E -> iM
-------------------------------------N -> i=E;
-------------------------------------E -> l
-------------------------------------M -> vE
-------------------------------------E -> iM
-------------------------------------N -> i=E;N
-------------------------------------N -> i();N
-------------------------------------E -> i
-------------------------------------E -> i(E)
-------------------------------------N -> i(E);N
-------------------------------------E -> l
-------------------------------------M -> vE
-------------------------------------E -> iM
-------------------------------------N -> w(E){N}
-------------------------------------E -> l
-------------------------------------N -> dti=E;N
-------------------------------------E -> l
-------------------------------------N -> dti=E;N
-------------------------------------S -> m{Nr;};-----Date: 13.12.2019 21:31:06-----
=======
l:	literal,	type: integer,	0
main:	function,	in function: main,	type: string,	
func:	function,	in function: func,	type: void,	
main:	function,	in function: main,	type: string,	
s1:	parametr,	in function: func,	type: string,	
s2:	variable,	in function: func,	type: string,	

function: main, returning type is: void,	, count of locals is: 0, count of parametors is: 0
function: func, returning type is: void,	, count of locals is: 1, count of parametors is: 1
function: main, returning type is: void,	, count of locals is: 0, count of parametors is: 0

Syntax analys is performing...

-----Date: 13.12.2019 20:31:38-----

Yes!!! Count of cycles:89
-------------------------------------N -> i();
-------------------------------------S -> m{Nr;};
-------------------------------------E -> l
-------------------------------------N -> dti;
-------------------------------------F -> ti
-------------------------------------S -> tfi(F){NrE;};S
-------------------------------------N -> i();
-------------------------------------S -> m{Nr;};S-----Date: 13.12.2019 20:31:38-----
>>>>>>> 14e5cdb862a8ca1b1b4b5ace734dea5b4714b1ef

nSyntax analys was completed successfull


Semantic's analys is performing...


<<<<<<< HEAD
Semantic's analys was completed suucessfull


Code generating is performing...


expression is:
 i=65534------>i 65534 = 
expression is:
 c=0------>c 0 = 
expression is:
 c<20000------>c 20000 < 
expression is:
 printStr(intToChar(i))------>i intToChar printStr 
expression is:
 printLine()------>printLine 
expression is:
 i=i+1------>i i 1 + = 
expression is:
 c=c+1------>c c 1 + = 
expression is:
 return------>return 
Code generating was completed suucessfull

=======
-----Error-----
Error 222: main can be only one (line 9, column 0)
>>>>>>> 14e5cdb862a8ca1b1b4b5ace734dea5b4714b1ef
