-----Date: 08.12.2019 13:04:07-----
-----PARAMETRS-----
Input file: inFile.txt
Output file: inFile.txt.out.asm
Log file: logFile.txt
-----Input data-----
Amount of symbols: 822
Amount of ignored symbols: 0
Amount of lines: 34

Lexic analys is performing...


Lexic analys is performing...

1: m
2: {
3: dti=l;
4: dti=l;
5: dti;
6: i(l,i[l]);
7: i[l]=l;
8: i(l,i[lvl]);
9: i[lvl]=l;
10: i(l,i[lvl]);
11: i[lvlvl]=l;
12: i(i(i,i[l],i[l]));
13: r;
14: };
15: tfi(ti,ti,ti){
16: dti=l;
17: dti;
18: 
19: w(ivivivi){
20: i=i()vlvl;
21: k(ivlvl){
22: i(i[l],i[l]);
23: i(i(i),i[l]);
24: }ak(ivl){
25: i(i[lvl],i[l]);
26: i(i(i),i[l]);
27: }a{
28: i(i[lvl],i[l]);
29: i(i(i),i[l]);
30: }
31: i=ivl;
32: }
33: ri[l];
34: };

IDs analys is performing...


IDs analys is performing...



ID Table
l:	literal,	integer,	9,	
l:	literal,	integer,	3,	
l:	literal,	string,	random number was even,	
l:	literal,	integer,	0,	
l:	literal,	integer,	22,	
l:	literal,	integer,	10,	
l:	literal,	string,	random number was positive,	
l:	literal,	integer,	1,	
l:	literal,	integer,	256,	
l:	literal,	integer,	26,	
l:	literal,	string,	random number was negative,	
l:	literal,	integer,	2,	
l:	literal,	integer,	20,	
main:	function,	main,	string,	,	
func:	function,	func,	string,	,	
num:	variable,	main,	integer,	
strings:	variable,	main,	string array,	,	
res:	variable,	main,	string,	,	
res:	parametr,	func,	string,	,	
strings:	parametr,	func,	string array,	,	
num:	parametr,	func,	integer,	
i:	variable,	func,	integer,	
rand:	variable,	func,	integer,	

function: main, returning type is: void,	, count of locals is: 3, count of parametors is: 0
function: func, returning type is: string,	, count of locals is: 2, count of parametors is: 3

Syntax analys is performing...


Yes!!! Count of cycles:0
-------------------------------------E -> l
-------------------------------------E -> i[E]
-------------------------------------E -> l
-------------------------------------M -> vE
-------------------------------------E -> iM
-------------------------------------N -> i=E;
-------------------------------------E -> l
-------------------------------------E -> i[E]
-------------------------------------W -> ,E
-------------------------------------E -> i
-------------------------------------E -> i(E)
-------------------------------------N -> i(EW);
-------------------------------------E -> l
-------------------------------------E -> i[E]
-------------------------------------W -> ,E
-------------------------------------E -> l
-------------------------------------M -> vE
-------------------------------------E -> lM
-------------------------------------E -> i[E]
-------------------------------------N -> i(EW);N
-------------------------------------C -> a{N}
-------------------------------------E -> l
-------------------------------------E -> i[E]
-------------------------------------W -> ,E
-------------------------------------E -> i
-------------------------------------E -> i(E)
-------------------------------------N -> i(EW);
-------------------------------------E -> l
-------------------------------------E -> i[E]
-------------------------------------W -> ,E
-------------------------------------E -> l
-------------------------------------M -> vE
-------------------------------------E -> lM
-------------------------------------E -> i[E]
-------------------------------------N -> i(EW);N
-------------------------------------E -> l
-------------------------------------M -> vE
-------------------------------------E -> iM
-------------------------------------C -> ak(E){N}C
-------------------------------------E -> l
-------------------------------------E -> i[E]
-------------------------------------W -> ,E
-------------------------------------E -> i
-------------------------------------E -> i(E)
-------------------------------------N -> i(EW);
-------------------------------------E -> l
-------------------------------------E -> i[E]
-------------------------------------W -> ,E
-------------------------------------E -> l
-------------------------------------E -> i[E]
-------------------------------------N -> i(EW);N
-------------------------------------E -> l
-------------------------------------M -> vE
-------------------------------------E -> lM
-------------------------------------M -> vE
-------------------------------------E -> iM
-------------------------------------N -> k(E){N}CN
-------------------------------------E -> l
-------------------------------------M -> vE
-------------------------------------E -> lM
-------------------------------------M -> vE
-------------------------------------E -> i()M
-------------------------------------N -> i=E;N
-------------------------------------E -> i
-------------------------------------M -> vE
-------------------------------------E -> iM
-------------------------------------M -> vE
-------------------------------------E -> iM
-------------------------------------M -> vE
-------------------------------------E -> iM
-------------------------------------N -> w(E){N}
-------------------------------------N -> dti;N
-------------------------------------E -> l
-------------------------------------N -> dti=E;N
-------------------------------------F -> ti
-------------------------------------F -> ti,F
-------------------------------------F -> ti,F
-------------------------------------S -> tfi(F){NrE;};
-------------------------------------E -> l
-------------------------------------E -> i[E]
-------------------------------------W -> ,E
-------------------------------------E -> l
-------------------------------------E -> i[E]
-------------------------------------W -> ,EW
-------------------------------------E -> i
-------------------------------------E -> i(EW)
-------------------------------------N -> i(E);
-------------------------------------E -> l
-------------------------------------E -> l
-------------------------------------M -> vE
-------------------------------------E -> lM
-------------------------------------M -> vE
-------------------------------------E -> lM
-------------------------------------N -> i[E]=E;N
-------------------------------------E -> l
-------------------------------------M -> vE
-------------------------------------E -> lM
-------------------------------------E -> i[E]
-------------------------------------W -> ,E
-------------------------------------E -> l
-------------------------------------N -> i(EW);N
-------------------------------------E -> l
-------------------------------------E -> l
-------------------------------------M -> vE
-------------------------------------E -> lM
-------------------------------------N -> i[E]=E;N
-------------------------------------E -> l
-------------------------------------M -> vE
-------------------------------------E -> lM
-------------------------------------E -> i[E]
-------------------------------------W -> ,E
-------------------------------------E -> l
-------------------------------------N -> i(EW);N
-------------------------------------E -> l
-------------------------------------E -> l
-------------------------------------N -> i[E]=E;N
-------------------------------------E -> l
-------------------------------------E -> i[E]
-------------------------------------W -> ,E
-------------------------------------E -> l
-------------------------------------N -> i(EW);N
-------------------------------------N -> dti;N
-------------------------------------E -> l
-------------------------------------N -> dti=E;N
-------------------------------------E -> l
-------------------------------------N -> dti=E;N
-------------------------------------S -> m{Nr;};S
nSyntax analys was completed successfull


Semantic's analys is performing...


Semantic's analys was completed suucessfull


Code generating is performing...


Code generating was completed suucessfull

