<<<<<<< HEAD
-----Date: 11.12.2019 10:45:27-----
=======
-----Date: 10.12.2019 23:08:48-----
>>>>>>> 40a8cbaee94e25ed26e062af12e841091911a772
-----PARAMETRS-----
Input file: inFile.txt
Output file: inFile.txt.out.asm
Log file: logFile.txt
-----Input data-----
Amount of symbols: 1575
Amount of ignored symbols: 0
Amount of lines: 84
<<<<<<< HEAD
=======

Lexic analys is performing...

>>>>>>> 40a8cbaee94e25ed26e062af12e841091911a772

Lexic analys is performing...

1: m
2: {
3: 
4: dti;
5: dti;
6: dti;
7: i(l,i[l]);
8: i(l);
9: i();
10: i(i(),i[l]);
11: i(i[l]);
12: i(l,i[l]);
13: i();
14: i(i[l]);
15: i=i();
16: i=i();
17: 
18: i();
19: k(ivl){
20: i(l,i[l]);
21: i(i(ivi),i[l]);
22: i(i[l]);
23: }a{
24: i(l,i[l]);
25: i(i[l]);
26: }
27: 
28: i();
29: i(l,i[l]);
30: i(i(ivi),i[l]);
31: i(i[l]);
32: 
33: i();
34: i(l,i[l]);
35: i(i(ivi),i[l]);
36: i(i[l]);
37: 
38: i();
39: i(l,i[l]);
40: i(i(ivi),i[l]);
41: i(i[l]);
42: 
43: i();
44: i(l,i[l]);
45: i(i(i(i,i)),i[l]);
46: i(i[l]);
47: 
48: dti=l;
49: i(i[l]);
50: 
51: r;
52: };
53: tfi(ti){
54: dti=l;
55: 
56: i(l,i[l]);
57: i(l,i[lvl]);
58: i();
59: i[lvl]=l;
60: i[lvl]=l;
61: i(i[l]);
62: i(i[l]);
63: i();
64: 
65: dti;
66: dti;
67: i[l]=l;
68: i[l]=l;
69: dti=l;
70: dti=l;
71: w(ivl){
72: i=l;
73: w(ivl){
74: i[ivlvi]=i()vlvl;
75: i(i(vi[ivlvi]),i[l]);
76: i(i[l],i[l]);
77: i(i[l]);
78: i=ivl;
79: }
80: i();
81: i=ivl;
82: }
83: rl;
84: };

<<<<<<< HEAD
Lexic analys was successfull
=======
IDs analys is performing...
>>>>>>> 40a8cbaee94e25ed26e062af12e841091911a772


IDs analys is performing...


IDs analys was successfull



ID Table
l:	literal,	type: string,	Your name is 
l:	literal,	type: integer,	0
l:	literal,	type: string,	Enter your name:
l:	literal,	type: string,	Enter 2 numbers:
l:	literal,	type: string,	num1 / num2 = 
l:	literal,	type: string,	error: num2 wath zero
l:	literal,	type: string,	num1 % num2 = 
l:	literal,	type: string,	num1 * num2 = 
l:	literal,	type: string,	num1 - num2 = 
l:	literal,	type: string,	num1^num2 = 
l:	literal,	type: integer,	16
l:	literal,	type: integer,	2
l:	literal,	type: string,	there are
l:	literal,	type: string,	4x4 array
l:	literal,	type: integer,	256
l:	literal,	type: integer,	1
l:	literal,	type: integer,	9
l:	literal,	type: integer,	10
l:	literal,	type: integer,	4
l:	literal,	type: integer,	20
main:	function,	in function: main,	type: string,	
func:	function,	in function: func,	type: void,	
s1:	variable,	in function: main,	type: string,	
num1:	variable,	in function: main,	type: integer
num2:	variable,	in function: main,	type: integer
s2:	variable,	in function: main,	type: array,	
arr:	parametr,	in function: func,	type: array,	
s2:	variable,	in function: func,	type: string array,	
temps:	variable,	in function: func,	type: string,	
tabulatio:	variable,	in function: func,	type: string,	
i:	variable,	in function: func,	type: integer
j:	variable,	in function: func,	type: integer

function: main, returning type is: void,	, count of locals is: 4, count of parametors is: 0
function: func, returning type is: void,	, count of locals is: 5, count of parametors is: 1

Syntax analys is performing...

<<<<<<< HEAD
-----Date: 11.12.2019 10:45:27-----

Yes!!! Count of cycles:108111
-------------------------------------E -> l
-------------------------------------E -> l
-------------------------------------M -> vE
-------------------------------------E -> iM
-------------------------------------N -> i=E;
-------------------------------------N -> i();N
-------------------------------------E -> l
-------------------------------------M -> vE
-------------------------------------E -> iM
-------------------------------------N -> i=E;
-------------------------------------E -> l
-------------------------------------E -> i[E]
-------------------------------------N -> i(E);N
-------------------------------------E -> l
-------------------------------------E -> i[E]
-------------------------------------W -> ,E
-------------------------------------E -> l
-------------------------------------E -> i[E]
-------------------------------------N -> i(EW);N
-------------------------------------E -> l
-------------------------------------E -> i[E]
-------------------------------------W -> ,E
-------------------------------------E -> i
-------------------------------------M -> vE
-------------------------------------E -> lM
-------------------------------------M -> vE
-------------------------------------E -> iM
-------------------------------------E -> vi[E]
-------------------------------------E -> i(E)
-------------------------------------N -> i(EW);N
-------------------------------------E -> l
-------------------------------------M -> vE
-------------------------------------E -> lM
-------------------------------------M -> vE
-------------------------------------E -> i()M
-------------------------------------E -> i
-------------------------------------M -> vE
-------------------------------------E -> lM
-------------------------------------M -> vE
-------------------------------------E -> iM
-------------------------------------N -> i[E]=E;N
-------------------------------------E -> l
-------------------------------------M -> vE
-------------------------------------E -> iM
-------------------------------------N -> w(E){N}N
-------------------------------------E -> l
-------------------------------------N -> i=E;N
-------------------------------------E -> l
-------------------------------------M -> vE
-------------------------------------E -> iM
-------------------------------------N -> w(E){N}
-------------------------------------E -> l
-------------------------------------N -> dti=E;N
-------------------------------------E -> l
-------------------------------------N -> dti=E;N
-------------------------------------E -> l
-------------------------------------E -> l
-------------------------------------N -> i[E]=E;N
-------------------------------------E -> l
-------------------------------------E -> l
-------------------------------------N -> i[E]=E;N
-------------------------------------N -> dti;N
-------------------------------------N -> dti;N
-------------------------------------N -> i();N
-------------------------------------E -> l
-------------------------------------E -> i[E]
-------------------------------------N -> i(E);N
-------------------------------------E -> l
-------------------------------------E -> i[E]
-------------------------------------N -> i(E);N
-------------------------------------E -> l
-------------------------------------E -> l
-------------------------------------M -> vE
-------------------------------------E -> lM
-------------------------------------N -> i[E]=E;N
-------------------------------------E -> l
-------------------------------------E -> l
-------------------------------------M -> vE
-------------------------------------E -> lM
-------------------------------------N -> i[E]=E;N
-------------------------------------N -> i();N
-------------------------------------E -> l
-------------------------------------M -> vE
-------------------------------------E -> lM
-------------------------------------E -> i[E]
-------------------------------------W -> ,E
-------------------------------------E -> l
-------------------------------------N -> i(EW);N
-------------------------------------E -> l
-------------------------------------E -> i[E]
-------------------------------------W -> ,E
-------------------------------------E -> l
-------------------------------------N -> i(EW);N
-------------------------------------E -> l
-------------------------------------N -> dti=E;N
-------------------------------------F -> ti
-------------------------------------S -> tfi(F){NrE;};
-------------------------------------E -> l
-------------------------------------E -> i[E]
-------------------------------------N -> i(E);
-------------------------------------E -> l
-------------------------------------N -> dti=E;N
-------------------------------------E -> l
-------------------------------------E -> i[E]
-------------------------------------N -> i(E);N
-------------------------------------E -> l
-------------------------------------E -> i[E]
-------------------------------------W -> ,E
-------------------------------------E -> i
-------------------------------------W -> ,E
-------------------------------------E -> i
-------------------------------------E -> i(EW)
-------------------------------------E -> i(E)
-------------------------------------N -> i(EW);N
-------------------------------------E -> l
-------------------------------------E -> i[E]
-------------------------------------W -> ,E
-------------------------------------E -> l
-------------------------------------N -> i(EW);N
-------------------------------------N -> i();N
-------------------------------------E -> l
-------------------------------------E -> i[E]
-------------------------------------N -> i(E);N
-------------------------------------E -> l
-------------------------------------E -> i[E]
-------------------------------------W -> ,E
-------------------------------------E -> i
-------------------------------------M -> vE
-------------------------------------E -> iM
-------------------------------------E -> i(E)
-------------------------------------N -> i(EW);N
-------------------------------------E -> l
-------------------------------------E -> i[E]
-------------------------------------W -> ,E
-------------------------------------E -> l
-------------------------------------N -> i(EW);N
-------------------------------------N -> i();N
-------------------------------------E -> l
-------------------------------------E -> i[E]
-------------------------------------N -> i(E);N
-------------------------------------E -> l
-------------------------------------E -> i[E]
-------------------------------------W -> ,E
-------------------------------------E -> i
-------------------------------------M -> vE
-------------------------------------E -> iM
-------------------------------------E -> i(E)
-------------------------------------N -> i(EW);N
-------------------------------------E -> l
-------------------------------------E -> i[E]
-------------------------------------W -> ,E
-------------------------------------E -> l
-------------------------------------N -> i(EW);N
-------------------------------------N -> i();N
-------------------------------------E -> l
-------------------------------------E -> i[E]
-------------------------------------N -> i(E);N
-------------------------------------E -> l
-------------------------------------E -> i[E]
-------------------------------------W -> ,E
-------------------------------------E -> i
-------------------------------------M -> vE
-------------------------------------E -> iM
-------------------------------------E -> i(E)
-------------------------------------N -> i(EW);N
-------------------------------------E -> l
-------------------------------------E -> i[E]
-------------------------------------W -> ,E
-------------------------------------E -> l
-------------------------------------N -> i(EW);N
-------------------------------------N -> i();N
-------------------------------------E -> l
-------------------------------------E -> i[E]
-------------------------------------N -> i(E);
-------------------------------------E -> l
-------------------------------------E -> i[E]
-------------------------------------W -> ,E
-------------------------------------E -> l
-------------------------------------N -> i(EW);N
-------------------------------------C -> a{N}
-------------------------------------E -> l
-------------------------------------E -> i[E]
-------------------------------------N -> i(E);
-------------------------------------E -> l
-------------------------------------E -> i[E]
-------------------------------------W -> ,E
-------------------------------------E -> i
-------------------------------------M -> vE
-------------------------------------E -> iM
-------------------------------------E -> i(E)
-------------------------------------N -> i(EW);N
-------------------------------------E -> l
-------------------------------------E -> i[E]
-------------------------------------W -> ,E
-------------------------------------E -> l
-------------------------------------N -> i(EW);N
-------------------------------------E -> l
-------------------------------------M -> vE
-------------------------------------E -> iM
-------------------------------------N -> k(E){N}CN
-------------------------------------N -> i();N
-------------------------------------E -> i()
-------------------------------------N -> i=E;N
-------------------------------------E -> i()
-------------------------------------N -> i=E;N
-------------------------------------E -> l
-------------------------------------E -> i[E]
-------------------------------------N -> i(E);N
-------------------------------------N -> i();N
-------------------------------------E -> l
-------------------------------------E -> i[E]
-------------------------------------W -> ,E
-------------------------------------E -> l
-------------------------------------N -> i(EW);N
-------------------------------------E -> l
-------------------------------------E -> i[E]
-------------------------------------N -> i(E);N
-------------------------------------E -> l
-------------------------------------E -> i[E]
-------------------------------------W -> ,E
-------------------------------------E -> i()
-------------------------------------N -> i(EW);N
-------------------------------------N -> i();N
-------------------------------------E -> l
-------------------------------------N -> i(E);N
-------------------------------------E -> l
-------------------------------------E -> i[E]
-------------------------------------W -> ,E
-------------------------------------E -> l
-------------------------------------N -> i(EW);N
-------------------------------------N -> dti;N
-------------------------------------N -> dti;N
-------------------------------------N -> dti;N
-------------------------------------S -> m{Nr;};S-----Date: 11.12.2019 10:45:36-----

=======
-----Date: 10.12.2019 23:08:50-----

Yes!!! Count of cycles:1-----Date: 10.12.2019 23:08:50-----

>>>>>>> 40a8cbaee94e25ed26e062af12e841091911a772
nSyntax analys was completed successfull


Semantic's analys is performing...


Semantic's analys was completed suucessfull


Code generating is performing...


Code generating was completed suucessfull

