-----Date: 09.12.2019 12:20:26-----
-----PARAMETRS-----
Input file: inFile.txt
Output file: inFile.txt.out.asm
Log file: logFile.txt
-----Input data-----
Amount of symbols: 208
Amount of ignored symbols: 0
Amount of lines: 13

Lexic analys is performing...


Lexic analys is performing...

1: m
2: {
3: dti=l;
4: dti=l;
5: dti;
6: k(vi[vi[l]]vl){
7: i[l]=i();
8: }
9: r;
10: };
11: 
12: tfi(){
13: dti;
14: rvi[l];
15: };
IDs analys is performing...


IDs analys is performing...



ID Table
l:	literal,	char,	50,	
l:	literal,	integer,	2,	
l:	literal,	integer,	3,	
l:	literal,	integer,	0,	
main:	function,	main,	string,	,	
func:	function,	func,	integer,	
a:	variable,	main,	integer,	
strs:	variable,	main,	string array,	,	
str:	variable,	main,	string,	,	
str:	variable,	func,	string,	,	

function: main, returning type is: void,	, count of locals is: 3, count of parametors is: 0
function: func, returning type is: integer,	string,	, count of locals is: 1, count of parametors is: 0

Syntax analys is performing...


Yes!!! Count of cycles:0
-------------------------------------E -> l
-------------------------------------E -> vi[E]
-------------------------------------N -> dti;
-------------------------------------S -> tfi(){NrE;};
-------------------------------------E -> i()
-------------------------------------E -> l
-------------------------------------N -> i[E]=E;
-------------------------------------E -> l
-------------------------------------M -> vE
-------------------------------------E -> l
-------------------------------------E -> vi[E]
-------------------------------------E -> vi[E]M
-------------------------------------N -> k(E){N}
-------------------------------------N -> dti;N
-------------------------------------E -> l
-------------------------------------N -> dti=E;N
-------------------------------------E -> l
-------------------------------------N -> dti=E;N
-------------------------------------S -> m{Nr;};S
nSyntax analys was completed successfull


Semantic's analys is performing...


Semantic's analys was completed suucessfull


Code generating is performing...


Code generating was completed suucessfull

