-----Date: 20.12.2019 20:27:54-----
-----PARAMETRS-----
Input file: inFile.txt
Output file: out.asm
Log file: logFile.txt
-----Input data-----
Amount of symbols: 603
Amount of ignored symbols: 0
Amount of lines: 49

Lexic analys is performing...

1: m
2: {
3: dti;
4: k(lvl){
5: i(l);
6: i();
7: }
8: k(lvl){
9: i(l);
10: i();
11: }
12: k(lvlvlvl){
13: i(l);
14: i();
15: }
16: k(lvlvlvl){
17: i(l);
18: i();
19: }
20: k(lvlvl){
21: i(l);
22: i();
23: }
24: k(lvlvl){
25: i(l);
26: i();
27: }
28: k(lvlvl){
29: i(l);
30: i();
31: }
32: k(lvlvl){
33: i(l);
34: i();
35: }
36: k(lvlvl){
37: i(l);
38: i();
39: }
40: k(lvlvl){
41: i(l);
42: i();
43: }
44: k(lvlvl){
45: i(l);
46: i();
47: }
48: r;
49: };

Lexic analys was successfull


IDs analys is performing...


IDs analys was successfull



ID Table
l:	literal,	type: integer,	5
l:	literal,	type: integer,	7
l:	literal,	type: string,	5<7
l:	literal,	type: string,	5>7
l:	literal,	type: integer,	0
l:	literal,	type: string,	-5>-7
l:	literal,	type: string,	-5<-7
l:	literal,	type: string,	-5<0
l:	literal,	type: string,	-5>0
l:	literal,	type: string,	0<-7
l:	literal,	type: string,	5>-7
l:	literal,	type: string,	-5<7
l:	literal,	type: string,	5<-7
main:	function,	in function: main,	type: string,	
int:	variable,	in function: main,	type: integer

function: main, returning type is: void,	, count of locals is: 1, count of parametors is: 0

Syntax analys is performing...

-----Date: 20.12.2019 20:27:54-----

Yes!!! Count of cycles:3397
-------------------------------------N -> i();
-------------------------------------E -> l
-------------------------------------N -> i(E);N
-------------------------------------E -> l
-------------------------------------M -> vE
-------------------------------------E -> lM
-------------------------------------M -> vE
-------------------------------------E -> lM
-------------------------------------N -> k(E){N}
-------------------------------------N -> i();
-------------------------------------E -> l
-------------------------------------N -> i(E);N
-------------------------------------E -> l
-------------------------------------M -> vE
-------------------------------------E -> lM
-------------------------------------M -> vE
-------------------------------------E -> lM
-------------------------------------N -> k(E){N}N
-------------------------------------N -> i();
-------------------------------------E -> l
-------------------------------------N -> i(E);N
-------------------------------------E -> l
-------------------------------------M -> vE
-------------------------------------E -> lM
-------------------------------------M -> vE
-------------------------------------E -> lM
-------------------------------------N -> k(E){N}N
-------------------------------------N -> i();
-------------------------------------E -> l
-------------------------------------N -> i(E);N
-------------------------------------E -> l
-------------------------------------M -> vE
-------------------------------------E -> lM
-------------------------------------M -> vE
-------------------------------------E -> lM
-------------------------------------N -> k(E){N}N
-------------------------------------N -> i();
-------------------------------------E -> l
-------------------------------------N -> i(E);N
-------------------------------------E -> l
-------------------------------------M -> vE
-------------------------------------E -> lM
-------------------------------------M -> vE
-------------------------------------E -> lM
-------------------------------------N -> k(E){N}N
-------------------------------------N -> i();
-------------------------------------E -> l
-------------------------------------N -> i(E);N
-------------------------------------E -> l
-------------------------------------M -> vE
-------------------------------------E -> lM
-------------------------------------M -> vE
-------------------------------------E -> lM
-------------------------------------N -> k(E){N}N
-------------------------------------N -> i();
-------------------------------------E -> l
-------------------------------------N -> i(E);N
-------------------------------------E -> l
-------------------------------------M -> vE
-------------------------------------E -> lM
-------------------------------------M -> vE
-------------------------------------E -> lM
-------------------------------------N -> k(E){N}N
-------------------------------------N -> i();
-------------------------------------E -> l
-------------------------------------N -> i(E);N
-------------------------------------E -> l
-------------------------------------M -> vE
-------------------------------------E -> lM
-------------------------------------M -> vE
-------------------------------------E -> lM
-------------------------------------M -> vE
-------------------------------------E -> lM
-------------------------------------N -> k(E){N}N
-------------------------------------N -> i();
-------------------------------------E -> l
-------------------------------------N -> i(E);N
-------------------------------------E -> l
-------------------------------------M -> vE
-------------------------------------E -> lM
-------------------------------------M -> vE
-------------------------------------E -> lM
-------------------------------------M -> vE
-------------------------------------E -> lM
-------------------------------------N -> k(E){N}N
-------------------------------------N -> i();
-------------------------------------E -> l
-------------------------------------N -> i(E);N
-------------------------------------E -> l
-------------------------------------M -> vE
-------------------------------------E -> lM
-------------------------------------N -> k(E){N}N
-------------------------------------N -> i();
-------------------------------------E -> l
-------------------------------------N -> i(E);N
-------------------------------------E -> l
-------------------------------------M -> vE
-------------------------------------E -> lM
-------------------------------------N -> k(E){N}N
-------------------------------------N -> dti;N
-------------------------------------S -> m{Nr;};-----Date: 20.12.2019 20:27:55-----

nSyntax analys was completed successfull


Semantic's analys is performing...


Semantic's analys was completed suucessfull


Code generating is performing...


expression is:
 5<7------>5 7 < 
expression is:
 printStr("5<7")------>"5<7" printStr 
expression is:
 printLine()------>printLine 
expression is:
 5>7------>5 7 > 
expression is:
 printStr("5>7")------>"5>7" printStr 
expression is:
 printLine()------>printLine 
expression is:
 0-5>0-7------>0 5 - 0 7 - > 
expression is:
 printStr("-5>-7")------>"-5>-7" printStr 
expression is:
 printLine()------>printLine 
expression is:
 0-5<0-7------>0 5 - 0 7 - < 
expression is:
 printStr("-5<-7")------>"-5<-7" printStr 
expression is:
 printLine()------>printLine 
expression is:
 0-5<0------>0 5 - 0 < 
expression is:
 printStr("-5<0")------>"-5<0" printStr 
expression is:
 printLine()------>printLine 
expression is:
 0-5>0------>0 5 - 0 > 
expression is:
 printStr("-5>0")------>"-5>0" printStr 
expression is:
 printLine()------>printLine 
expression is:
 0<0-7------>0 0 7 - < 
expression is:
 printStr("0<-7")------>"0<-7" printStr 
expression is:
 printLine()------>printLine 
expression is:
 0>0-7------>0 0 7 - > 
expression is:
 printStr("-5>-7")------>"-5>-7" printStr 
expression is:
 printLine()------>printLine 
expression is:
 5>0-7------>5 0 7 - > 
expression is:
 printStr("5>-7")------>"5>-7" printStr 
expression is:
 printLine()------>printLine 
expression is:
 0-5<7------>0 5 - 7 < 
expression is:
 printStr("-5<7")------>"-5<7" printStr 
expression is:
 printLine()------>printLine 
expression is:
 5<0-7------>5 0 7 - < 
expression is:
 printStr("5<-7")------>"5<-7" printStr 
expression is:
 printLine()------>printLine 
expression is:
 return------>return 
Code generating was completed suucessfull

